*SOILS: General DSSAT Soil Input File

*UMVA030003  -99         SCL      75 Updated Soil                                                    
@SITE        COUNTRY          LAT     LONG SCS FAMILY
 umarya      India         23.500   80.750 FINE, HYPHERTERMIC, VERTIC USTOCHREPTS                          
@ SCOM  SALB  SLU1  SLDR  SLRO  SLNF  SLPF  SMHB  SMPX  SMKE
    BN  0.13   6.0  0.60    61  1.00  1.00 IB001 IB001 IB001
@  SLB  SLMH  SLLL  SDUL  SSAT  SRGF  SSKS  SBDM  SLOC  SLCL  SLSI  SLCF  SLNI  SLHW  SLHB  SCEC  SADC
    11 -99   0.175 0.271 0.415 1.000  0.43  1.47  0.97  24.5  13.2   -99   -99   6.7   -99  18.5   -99
    31 -99   0.226 0.332 0.421 0.657  0.12  1.46  0.66  36.4  18.4   -99   -99   6.4   -99  19.3   -99
    50 -99   0.256 0.348 0.408 0.445  0.12  1.50  0.50  43.3  11.1   -99   -99   6.4   -99  24.5   -99
    75 -99   0.278 0.374 0.423 0.287  0.06  1.46  0.40  48.2  12.9   -99   -99   6.4   -99  31.3   -99
@  SLB  SLPX  SLPT  SLPO CACO3  SLAL  SLFE  SLMN  SLBS  SLPA  SLPB  SLKE  SLMG  SLNA  SLSU  SLEC  SLCA
    11   -99   -99   -99   -99   -99   -99   -99   -99   -99   -99  0.30   -99   -99   -99   -99 11.30
    31   -99   -99   -99   -99   -99   -99   -99   -99   -99   -99  0.40   -99   -99   -99   -99 12.40
    50   -99   -99   -99   -99   -99   -99   -99   -99   -99   -99  0.50   -99   -99   -99   -99 14.30
    75   -99   -99   -99   -99   -99   -99   -99   -99   -99   -99  0.30   -99   -99   -99   -99 17.30
